103
CAM-B3LYP/aVDZ MTA optimized
C    -12.0090333  2.0683829  -0.0963647
C    -10.8018428  1.2686324  0.3071523
O    -9.6588031  1.6765296  0.1342445
N    -11.0256468  0.0525343  0.8842302
C    -9.9412048  -0.6594810  1.5368256
C    -8.7852135  -1.0262974  0.6192514
O    -7.6511676  -1.1113748  1.0739084
H    -11.9744565  -0.1966671  1.1185617
N    -9.0641942  -1.2600481  -0.6798145
C    -8.0008121  -1.5207164  -1.6301139
C    -6.9433203  -0.4234592  -1.7284822
O    -5.8056389  -0.7311485  -2.0580263
H    -10.0140837  -1.1487862  -0.9980817
N    -7.3230411  0.8473512  -1.4839810
C    -6.3264738  1.9023105  -1.4467721
C    -5.3361434  1.7854741  -0.2886011
O    -4.1690999  2.1161048  -0.4383437
H    -8.2391495  1.0388696  -1.0943222
N    -5.8264976  1.3292161  0.8858171
C    -4.9364232  1.0317494  1.9904087
C    -3.9840634  -0.1293712  1.7120101
O    -2.8205971  -0.0795303  2.0825356
H    -6.7648702  0.9601213  0.9143404
N    -4.4930493  -1.1895639  1.0465030
C    -3.6276004  -2.2762731  0.6328562
C    -2.5413669  -1.8442454  -0.3532640
O    -1.3960565  -2.2601423  -0.2311359
H    -5.4800268  -1.2180069  0.8328444
N    -2.9167464  -1.0055252  -1.3389893
C    -1.9413239  -0.4928201  -2.2790655
C    -0.8727943  0.3877809  -1.6308963
O    0.2952120  0.2721683  -1.9726884
H    -3.8945248  -0.7758348  -1.4618929
N    -1.2823974  1.2662532  -0.6943651
C    -0.3148802  2.0744813  0.0224122
C    0.6459239  1.2491300  0.8786189
O    1.8328831  1.5337989  0.9283886
H    -2.2692705  1.4089691  -0.5256469
N    0.1092867  0.2138900  1.5597039
C    0.9525650  -0.6833744  2.3224745
C    1.9883728  -1.4065554  1.4636691
O    3.1516075  -1.5020765  1.8316328
H    -0.8893973  0.0645196  1.5487409
N    1.5518891  -1.9148793  0.2895401
C    2.4856350  -2.5259795  -0.6326170
C    3.5690977  -1.5667288  -1.1262715
O    4.7307150  -1.9409321  -1.2366012
H    0.5711970  -1.8622431  0.0476891
N    3.1769018  -0.3094422  -1.4184769
C    4.1349450  0.7046022  -1.8070519
C    5.1976889  0.9853476  -0.7463885
O    6.3258684  1.3352298  -1.0784206
H    2.1943630  -0.0747437  -1.3965375
N    4.8268273  0.8098411  0.5348319
C    5.7677736  0.9105691  1.6267374
C    6.9489023  -0.0525343  1.5424627
O    7.9855983  0.2209602  2.1389976
H    3.8674133  0.5761840  0.7445794
N    6.7944869  -1.1646208  0.8016352
C    7.8926912  -2.0800459  0.5784211
C    9.0610069  -1.5289012  -0.2388321
O    10.1149478  -2.1477983  -0.2554459
H    5.9273887  -1.3355357  0.3083762
N    8.8548381  -0.3696927  -0.9071359
C    9.9280010  0.3314910  -1.5723830
C    10.5316386  1.5026587  -0.7987274
O    11.3192832  2.2500424  -1.3694866
H    7.9482626  0.0815271  -0.8712906
N    10.1586166  1.6405704  0.4901649
C    10.6829458  2.6879738  1.3382060
H    9.5060133  0.9830981  0.9000412
H    -10.3401010  -1.5871214  1.9630965
H    -9.5022191  -0.0696212  2.3500892
H    -8.4467367  -1.6497100  -2.6222097
H    -7.4594951  -2.4379576  -1.3766913
H    -6.8467473  2.8633842  -1.3691346
H    -5.7262297  1.8986196  -2.3609198
H    -5.5445931  0.7915982  2.8697264
H    -4.3079807  1.8960186  2.2227809
H    -4.2476965  -3.0478270  0.1624789
H    -3.1029444  -2.7158424  1.4871942
H    -1.3972098  -1.3055637  -2.7726283
H    -2.4726848  0.0880921  -3.0413405
H    0.3098240  2.6533641  -0.6650639
H    -0.8641130  2.7686502  0.6680583
H    0.3049006  -1.4220045  2.8085095
H    1.5165375  -0.1480701  3.0932297
H    1.9204664  -2.8991831  -1.4945801
H    3.0161321  -3.3643625  -0.1689916
H    4.6803723  0.4215192  -2.7135002
H    3.5867940  1.6322262  -2.0071290
H    5.2270994  0.7002496  2.5557631
H    6.2014474  1.9147346  1.6978834
H    7.5006393  -2.9589439  0.0565819
H    8.3230277  -2.4105010  1.5294526
H    10.7363984  -0.3806333  -1.7665202
H    9.5833955  0.7301594  -2.5324993
H    9.8622282  3.2314954  1.8224195
H    11.3372378  2.2757258  2.1179786
H    11.2611754  3.3764908  0.7168659
H    -11.7967620  2.5762750  -1.0415753
H    -12.9149987  1.4602681  -0.1909182
H    -12.1756501  2.8382022  0.6678533
