 126
 alpha-cyclodextrin @ B3LYP/6-31++G**
 C            -2.467924   -4.764870    0.044087
 C            -3.334204   -4.491307   -1.194158
 C            -3.580995   -2.984419   -1.305523
 C            -4.206792   -2.432445   -0.030624
 C            -3.400449   -2.860319    1.212164
 C            -4.138296   -2.599442    2.522703
 O            -2.788596   -5.003584   -2.396606
 O            -4.458208   -2.691686   -2.396537
 O            -3.127610   -4.277304    1.199696
 O            -5.366159   -3.311762    2.607124
 H            -4.151676   -3.209655   -3.157462
 H            -2.332254   -5.838071    0.209011
 H            -4.295013   -5.000119   -1.052700
 H            -2.619170   -2.479537   -1.466321
 H            -5.240273   -2.787919    0.057992
 H            -2.452968   -2.305116    1.215881
 H            -4.389024   -1.538335    2.594585
 H            -3.474308   -2.859507    3.358830
 H            -1.813601   -4.914500   -2.404120
 H            -5.161361   -4.256436    2.561606
 O            -1.222007   -4.120208   -0.134211
 C             2.893458   -4.519333    0.034109
 C             2.220030   -5.127422   -1.204948
 C             0.791560   -4.586714   -1.310850
 C             0.003692   -4.857246   -0.035064
 C             0.780532   -4.377310    1.207445
 C             0.188429   -4.889398    2.517820
 O             2.933734   -4.906540   -2.408199
 O             0.096660   -5.195844   -2.402435
 O             2.143742   -4.850505    1.190258
 O             0.189284   -6.309225    2.597318
 H             0.696358   -5.186174   -3.165001
 H             3.890687   -4.940032    0.195126
 H             2.179959   -6.214443   -1.067660
 H             0.835182   -3.500745   -1.467739
 H            -0.205041   -5.930310    0.050033
 H             0.774224   -3.279179    1.214507
 H            -0.855124   -4.574417    2.593715
 H             0.748715   -4.448208    3.353911
 H             3.346729   -4.018818   -2.412024
 H             1.109160   -6.605526    2.547728
 O             2.959042   -3.117447   -0.139233
 C             5.363115    0.245503    0.037325
 C             5.554045   -0.639294   -1.203313
 C             4.371118   -1.605063   -1.312075
 C             4.210651   -2.425556   -0.038209
 C             4.183878   -1.516076    1.206744
 C             4.332150   -2.288525    2.514898
 O             5.721199    0.091378   -2.405065
 O             4.551104   -2.509014   -2.405672
 O             5.275073   -0.571730    1.191770
 O             5.562729   -2.997008    2.591983
 H             4.843427   -1.983188   -3.166791
 H             6.225579    0.899023    0.199951
 H             6.474969   -1.218235   -1.066182
 H             3.452818   -1.023457   -1.467988
 H             5.035056   -3.143647    0.045263
 H             3.229692   -0.972548    1.215692
 H             3.538182   -3.035609    2.588780
 H             4.229901   -1.585251    3.353087
 H             5.160649    0.894136   -2.407428
 H             6.278768   -2.347835    2.544063
 O             4.181403    1.002796   -0.134993
 C             2.467924    4.764870    0.044087
 C             3.334204    4.491307   -1.194158
 C             3.580995    2.984419   -1.305523
 C             4.206792    2.432445   -0.030624
 C             3.400449    2.860319    1.212164
 C             4.138296    2.599442    2.522703
 O             2.788596    5.003584   -2.396606
 O             4.458208    2.691686   -2.396537
 O             3.127610    4.277304    1.199696
 O             5.366159    3.311762    2.607124
 H             4.151676    3.209655   -3.157462
 H             2.332254    5.838071    0.209011
 H             4.295013    5.000119   -1.052700
 H             2.619170    2.479537   -1.466321
 H             5.240273    2.787919    0.057992
 H             2.452968    2.305117    1.215881
 H             4.389024    1.538335    2.594585
 H             3.474308    2.859507    3.358830
 H             1.813601    4.914500   -2.404120
 H             5.161361    4.256436    2.561606
 O             1.222007    4.120208   -0.134211
 C            -2.893458    4.519333    0.034109
 C            -2.220030    5.127422   -1.204948
 C            -0.791560    4.586714   -1.310850
 C            -0.003692    4.857246   -0.035064
 C            -0.780532    4.377310    1.207445
 C            -0.188429    4.889398    2.517820
 O            -2.933734    4.906540   -2.408199
 O            -0.096660    5.195844   -2.402435
 O            -2.143742    4.850505    1.190258
 O            -0.189284    6.309225    2.597318
 H            -0.696358    5.186174   -3.165001
 H            -3.890687    4.940032    0.195126
 H            -2.179959    6.214443   -1.067660
 H            -0.835182    3.500745   -1.467739
 H             0.205041    5.930310    0.050033
 H            -0.774224    3.279179    1.214507
 H             0.855124    4.574417    2.593715
 H            -0.748715    4.448208    3.353911
 H            -3.346729    4.018818   -2.412024
 H            -1.109160    6.605526    2.547728
 O            -2.959042    3.117447   -0.139233
 C            -5.363115   -0.245503    0.037325
 C            -5.554045    0.639294   -1.203313
 C            -4.371118    1.605063   -1.312075
 C            -4.210651    2.425556   -0.038209
 C            -4.183878    1.516076    1.206744
 C            -4.332150    2.288525    2.514898
 O            -5.721199   -0.091378   -2.405065
 O            -4.551104    2.509014   -2.405672
 O            -5.275073    0.571730    1.191770
 O            -5.562729    2.997008    2.591983
 H            -4.843427    1.983188   -3.166791
 H            -6.225579   -0.899023    0.199951
 H            -6.474969    1.218235   -1.066182
 H            -3.452818    1.023457   -1.467988
 H            -5.035056    3.143647    0.045263
 H            -3.229692    0.972548    1.215692
 H            -3.538182    3.035609    2.588780
 H            -4.229901    1.585251    3.353087
 H            -5.160649   -0.894136   -2.407428
 H            -6.278768    2.347835    2.544063
 O            -4.181403   -1.002796   -0.134993
 